Circuit: * C:\Users\mjele\Documents\EPSA\TSAL\Oscillateur 5Hz.asc

WARNING: Less than two connections to node NC_01.  This node is used by S:U2:1.
Direct Newton iteration for .op point succeeded.

Date: Tue Feb 02 17:30:42 2021
Total elapsed time: 0.077 seconds.

tnom = 27
temp = 27
method = modified trap
totiter = 2100
traniter = 2094
tranpoints = 1048
accept = 1048
rejected = 0
matrix size = 16
fillins = 0
solver = Normal
Matrix Compiler1: 430 bytes object code size  0.1/0.1/[0.1]
Matrix Compiler2: 868 bytes object code size  0.1/0.1/[0.1]

