Circuit: * C:\Users\mjele\Documents\EPSA\Bench01-EPSA\01-Maquettes Primitives\TSAL\Oscillateur 5Hz\Oscillateur 5Hz.asc

Limiting rise time of source vin to 0.1
Limiting fall time of source vin to 0.1
WARNING: Less than two connections to node NC_01.  This node is used by S:U2:1.
Direct Newton iteration for .op point succeeded.

Date: Tue Feb 09 17:44:21 2021
Total elapsed time: 0.212 seconds.

tnom = 27
temp = 27
method = modified trap
totiter = 7025
traniter = 7019
tranpoints = 2102
accept = 1851
rejected = 251
matrix size = 16
fillins = 0
solver = Normal
Matrix Compiler1: 430 bytes object code size  0.2/0.1/[0.1]
Matrix Compiler2: 868 bytes object code size  0.1/0.4/[0.1]

