Circuit: * C:\Users\mjele\Documents\EPSA\Bench01-EPSA\01-Maquettes Primitives\TSAL\Draft3.asc

Limiting rise time of source v1 to 0.1
Limiting fall time of source v1 to 0.1
WARNING: Less than two connections to node NC_02.  This node is used by S:U2:1.
WARNING: Less than two connections to node N005.  This node is used by D§ROUGE1.
Direct Newton iteration for .op point succeeded.

Date: Tue Feb 09 17:37:59 2021
Total elapsed time: 0.242 seconds.

tnom = 27
temp = 27
method = modified trap
totiter = 5670
traniter = 5638
tranpoints = 1801
accept = 1613
rejected = 188
matrix size = 23
fillins = 0
solver = Normal
Matrix Compiler1: 734 bytes object code size  0.2/0.1/[0.1]
Matrix Compiler2: off  [0.2]/0.3/0.2

