Circuit: * C:\Users\mjele\Documents\EPSA\Bench01-EPSA\01-Maquettes Primitives\TSAL\Draft2.asc

Limiting rise time of source v1 to 0.1
Limiting fall time of source v1 to 0.1
ERROR: Node N005 is floating and connected to current source G:U2:1

Direct Newton iteration failed to find .op point.  (Use ".option noopiter" to skip.)
Starting Gmin stepping
Gmin = 10
Gmin = 1.07374
Gmin = 0.115292
Gmin = 0.0123794
Gmin = 0.00132923
Gmin = 0.000142725
Gmin = 1.5325e-005
Gmin = 1.6455e-006
Gmin = 1.76685e-007
Gmin = 1.89714e-008
Gmin = 2.03704e-009
Gmin = 2.18725e-010
Gmin = 2.34854e-011
Gmin = 2.52173e-012
Gmin = 2.70769e-013
Terminal Gmin changed to 1e-014
Gmin = 4.54274e-014
Terminal Gmin changed to 1e-015
Gmin = 7.62146e-015
vernier = 0.5
vernier = 0.25
vernier = 0.125
Gmin = 5.8192e-015
vernier = 0.0625
vernier = 0.03125
vernier = 0.015625
Gmin = 5.5129e-015
vernier = 0.0078125
vernier = 0.00390625
vernier = 0.00195313
vernier = 0.000976563
Gmin = 5.51556e-015
vernier = 0.000488281
Gmin = 0
Gmin stepping failed

Starting source stepping with srcstepmethod=0
Source Step = 3.0303%
Source Step = 13.7311%
Source Step = 13.8258%
Source Step = 13.8554%
Source Step = 13.8849%
Source Step = 13.9145%
Source Step = 13.9441%
Source Step = 13.9737%
Source Step = 14.0033%
vernier = 0.00146484
Source Step = 14.0359%
Source Step = 14.0803%
Source Step = 14.1246%
Source Step = 14.169%
Source Step = 14.2134%
vernier = 0.00219727
Source Step = 14.26%
Source Step = 14.3266%
Source Step = 14.3932%
Source Step = 14.4598%
Source Step = 14.5264%
Source Step = 14.593%
vernier = 0.0032959
Source Step = 14.6928%
Source Step = 14.7927%
Source Step = 14.8926%
Source Step = 14.9925%
Source Step = 15.0923%
vernier = 0.00494385
Source Step = 15.2371%
Source Step = 15.387%
Source Step = 15.5368%
Source Step = 15.6866%
Source Step = 15.8364%
vernier = 0.00741577
Source Step = 16.0461%
Source Step = 16.2709%
Source Step = 16.4956%
Source Step = 16.5799%
Source Step = 16.636%
Source Step = 16.6922%
Source Step = 16.7484%
Source Step = 16.8046%
vernier = 0.00278091
Source Step = 16.8664%
Source Step = 16.9506%
Source Step = 17.0349%
Source Step = 17.1192%
Source Step = 17.2035%
vernier = 0.00417137
Source Step = 17.2919%
Source Step = 17.4183%
Source Step = 17.5447%
Source Step = 17.6712%
Source Step = 17.7976%
Source Step = 17.924%
vernier = 0.00625706
Source Step = 18.1136%
Source Step = 18.3032%
Source Step = 18.4928%
Source Step = 18.6824%
Source Step = 18.872%
vernier = 0.00938559
Source Step = 19.1469%
Source Step = 19.4313%
Source Step = 19.7158%
Source Step = 20.0002%
Source Step = 20.2846%
vernier = 0.0023464
Source Step = 20.3272%
Source Step = 20.3983%
Source Step = 20.4694%
Source Step = 20.5405%
Source Step = 20.6117%
vernier = 0.00351959
Source Step = 20.7005%
Source Step = 20.8072%
Source Step = 20.9138%
Source Step = 21.0205%
Source Step = 21.1271%
vernier = 0.00527939
Source Step = 21.2551%
Source Step = 21.4151%
Source Step = 21.5751%
Source Step = 21.7351%
Source Step = 21.8951%
vernier = 0.00791909
Source Step = 22.079%
Source Step = 22.319%
Source Step = 22.559%
Source Step = 22.799%
Source Step = 23.0389%
vernier = 0.0118786
Source Step = 23.3029%
Source Step = 23.6629%
Source Step = 24.0228%
Source Step = 24.3828%
Source Step = 24.7427%
vernier = 0.0178179
Source Step = 25.1207%
Source Step = 25.6606%
Source Step = 26.2006%
Source Step = 26.7405%
Source Step = 27.2804%
Source Step = 27.8204%
vernier = 0.0267269
Source Step = 28.6303%
Source Step = 29.4402%
Source Step = 30.2501%
Source Step = 31.06%
Source Step = 31.8699%
vernier = 0.0400904
Source Step = 33.0443%
Source Step = 34.2591%
Source Step = 35.474%
Source Step = 36.6889%
Source Step = 37.9037%
vernier = 0.0601356
Source Step = 39.6045%
Source Step = 41.4268%
Source Step = 43.2491%
Source Step = 45.0714%
Source Step = 46.8937%
vernier = 0.0902034
Source Step = 49.3538%
Source Step = 52.0872%
vernier = 0.0225508
Source Step = 52.0787%
Source Step = 52.1214%
Source Step = 52.1641%
Source Step = 52.2068%
Source Step = 52.2495%
Source Step = 52.2922%
vernier = 0.00211414
Source Step = 52.3499%
Source Step = 52.4139%
Source Step = 52.478%
Source Step = 52.5421%
Source Step = 52.6061%
vernier = 0.00317121
Source Step = 52.6894%
Source Step = 52.7855%
Source Step = 52.8816%
Source Step = 52.9777%
Source Step = 53.0738%
vernier = 0.00475682
Source Step = 53.1939%
Source Step = 53.3381%
Source Step = 53.4822%
Source Step = 53.6264%
Source Step = 53.7705%
vernier = 0.00713523
Source Step = 53.9435%
Source Step = 54.1597%
Source Step = 54.3759%
Source Step = 54.5921%
Source Step = 54.8084%
vernier = 0.0107028
Source Step = 55.057%
Source Step = 55.3813%
Source Step = 55.7057%
Source Step = 56.03%
Source Step = 56.3543%
vernier = 0.0160543
Source Step = 56.7111%
Source Step = 57.1976%
Source Step = 57.6841%
Source Step = 58.1706%
Source Step = 58.6571%
vernier = 0.0240814
Source Step = 59.1679%
Source Step = 59.8976%
Source Step = 60.6274%
Source Step = 61.3571%
Source Step = 62.0868%
Source Step = 62.8166%
vernier = 0.0361221
Source Step = 63.9112%
Source Step = 65.0058%
Source Step = 66.1004%
Source Step = 67.195%
Source Step = 68.2896%
vernier = 0.0541831
Source Step = 69.8768%
Source Step = 71.5187%
Source Step = 73.1606%
Source Step = 74.8025%
Source Step = 76.4445%
vernier = 0.0812747
Source Step = 78.7431%
Source Step = 81.206%
Source Step = 83.6689%
Source Step = 86.1317%
Source Step = 88.5946%
vernier = 0.121912
Source Step = 90.8343%
vernier = 0.00190488
Source Step = 90.8689%
Source Step = 90.9266%
Source Step = 90.9844%
Source Step = 91.0421%
Source Step = 91.0998%
Source Step = 91.1575%
Source Step = 91.2153%
Source Step = 91.273%
Source Step = 91.3307%
Source Step = 91.3884%
Source Step = 91.4462%
Source Step = 91.5039%
Source Step = 91.5616%
Source Step = 91.6193%
Source Step = 91.677%
Source Step = 91.7348%
Source Step = 91.7925%
Source Step = 91.8502%
Source Step = 91.9079%
Source Step = 91.9657%
Source Step = 92.0234%
Source Step = 92.0811%
Source Step = 92.1388%
Source Step = 92.1966%
Source Step = 92.2543%
Source Step = 92.312%
Source Step = 92.3697%
Source Step = 92.4275%
Source Step = 92.4852%
Source Step = 92.5429%
Source Step = 92.6006%
Source Step = 92.6583%
Source Step = 92.7161%
Source Step = 92.7738%
Source Step = 92.8315%
Source Step = 92.8892%
Source Step = 92.947%
Source Step = 93.0047%
Source Step = 93.0624%
Source Step = 93.1201%
Source Step = 93.1779%
Source Step = 93.2356%
Source Step = 93.2933%
Source Step = 93.351%
Source Step = 93.4087%
Source Step = 93.4665%
Source Step = 93.5242%
Source Step = 93.5819%
Source Step = 93.6396%
Source Step = 93.6974%
Source Step = 93.7551%
Source Step = 93.8128%
Source Step = 93.8705%
Source Step = 93.9283%
Source Step = 93.986%
Source Step = 94.0437%
Source Step = 94.1014%
Source Step = 94.1592%
Source Step = 94.2169%
Source Step = 94.2746%
Source Step = 94.3323%
Source Step = 94.39%
Source Step = 94.4478%
Trouble finding operating point....skipping operating point for Transient analysis.

Date: Tue Feb 09 16:59:41 2021
Total elapsed time: 0.777 seconds.

tnom = 27
temp = 27
method = modified trap
totiter = 52611
traniter = 0
tranpoints = 1
accept = 1
rejected = 0
matrix size = 9
fillins = 3
solver = Normal

