Circuit: * C:\Users\mjele\Documents\EPSA\Bench01-EPSA\01-Maquettes Primitives\TSAL\détection.asc

Limiting rise time of source v§relai to 0.2
Limiting fall time of source v§relai to 0.2
Limiting rise time of source v§air to 0.2
Limiting fall time of source v§air to 0.2
Limiting rise time of source vbat to 0.2
Limiting fall time of source vbat to 0.2
WARNING: Less than two connections to node NC_01.  This node is used by S:U2:1.
WARNING: Less than two connections to node N006.  This node is used by D§ROUGE.
Direct Newton iteration failed to find .op point.  (Use ".option noopiter" to skip.)
Starting Gmin stepping
Gmin = 10
Gmin = 1.07374
vernier = 0.5
vernier = 0.25
vernier = 0.125
vernier = 0.0625
Gmin = 0.995033
vernier = 0.03125
vernier = 0.015625
vernier = 0.0078125
vernier = 0.00390625
Gmin = 0.999816
vernier = 0.00195313
vernier = 0.000976563
vernier = 0.000488281
Gmin = 0
Gmin stepping succeeded in finding the operating point.


Date: Tue Feb 09 17:56:12 2021
Total elapsed time: 0.489 seconds.

tnom = 27
temp = 27
method = modified trap
totiter = 21509
traniter = 19917
tranpoints = 4804
accept = 3900
rejected = 904
matrix size = 48
fillins = 21
solver = Normal
Matrix Compiler1: 2.43 KB object code size  0.6/0.3/[0.1]
Matrix Compiler2: 3.72 KB object code size  0.6/0.7/[0.5]

