Circuit: * C:\Users\Quent\Documents\EPSA\git\Bench01-EPSA\01-Maquettes Primitives\TSAL\détection.asc

Limiting rise time of source v§relai to 0.2
Limiting fall time of source v§relai to 0.2
Limiting rise time of source v§air to 0.2
Limiting fall time of source v§air to 0.2
Limiting rise time of source vbat to 0.2
Limiting fall time of source vbat to 0.2
WARNING: Less than two connections to node NC_01.  This node is used by S:U2:1.
Direct Newton iteration failed to find .op point.  (Use ".option noopiter" to skip.)
Starting Gmin stepping
Gmin = 10
Gmin = 1.07374
vernier = 0.5
vernier = 0.25
vernier = 0.125
vernier = 0.0625
Gmin = 0.995033
vernier = 0.03125
vernier = 0.015625
vernier = 0.0078125
vernier = 0.00390625
Gmin = 0.999816
vernier = 0.00195313
vernier = 0.000976563
vernier = 0.000488281
Gmin = 0
Gmin stepping succeeded in finding the operating point.

Heightened Def Con from 2.1689 to 2.1689

Date: Tue Mar 02 15:57:12 2021
Total elapsed time: 0.767 seconds.

tnom = 27
temp = 27
method = modified trap
totiter = 57117
traniter = 55475
tranpoints = 13739
accept = 10500
rejected = 3240
matrix size = 74
fillins = 15
solver = Normal
Thread vector: 9.9/5.7[2] 1.9/2.9[1] 1.9/2.9[1] 0.2/1.7[1]  2592/500
Matrix Compiler1: 3.59 KB object code size  0.8/0.3/[0.2]
Matrix Compiler2: off  [0.5]/0.7/0.7

