Circuit: * C:\Users\mjele\Documents\EPSA\Bench01-EPSA\01-Maquettes Primitives\TSAL\détection.asc

Limiting rise time of source v§relai to 0.2
Limiting fall time of source v§relai to 0.2
Limiting rise time of source v§air to 0.2
Limiting fall time of source v§air to 0.2
Limiting rise time of source vbat to 0.2
Limiting fall time of source vbat to 0.2
WARNING: Less than two connections to node NC_01.  This node is used by S:U2:1.
Direct Newton iteration failed to find .op point.  (Use ".option noopiter" to skip.)
Starting Gmin stepping
Gmin = 10
Gmin = 1.07374
vernier = 0.5
vernier = 0.25
vernier = 0.125
vernier = 0.0625
Gmin = 0.995033
vernier = 0.03125
vernier = 0.015625
vernier = 0.0078125
vernier = 0.00390625
Gmin = 0.999816
vernier = 0.00195313
vernier = 0.000976563
vernier = 0.000488281
Gmin = 0
Gmin stepping succeeded in finding the operating point.


Date: Thu Feb 25 17:28:00 2021
Total elapsed time: 0.663 seconds.

tnom = 27
temp = 27
method = modified trap
totiter = 24856
traniter = 23229
tranpoints = 6125
accept = 4835
rejected = 1290
matrix size = 70
fillins = 15
solver = Normal
Thread vector: 7.4/6.4[2] 4.2/3.1[2] 2.7/3.0[1] 0.2/1.1[1]  2592/500
Matrix Compiler1: 3.43 KB object code size  1.1/0.7/[0.3]
Matrix Compiler2: 5.29 KB object code size  0.5/0.8/[0.4]

