Circuit: * C:\Users\mjele\Documents\EPSA\Bench01-EPSA\01-Maquettes Primitives\TSAL\Optocoupleur\Draft1.asc

Limiting rise time of source v1 to 0.1
Limiting fall time of source v1 to 0.1
Direct Newton iteration for .op point succeeded.

Date: Tue Feb 23 16:49:21 2021
Total elapsed time: 0.080 seconds.

tnom = 27
temp = 27
method = modified trap
totiter = 2284
traniter = 2281
tranpoints = 1139
accept = 1115
rejected = 24
matrix size = 8
fillins = 0
solver = Normal
Matrix Compiler1: 174 bytes object code size  0.1/0.0/[0.0]
Matrix Compiler2: off  [0.1]/0.1/0.1

